 ****** HSPICE -- M-2017.03-2 linux64 (Apr 27 2017) ******                      
  Copyright (c) 1986 - 2017 by Synopsys, Inc. All Rights Reserved.              
  This software and the associated documentation are proprietary
  to Synopsys, Inc. This software may only be used in accordance
  with the terms and conditions of a written license agreement with
  Synopsys, Inc. All other use, reproduction, or distribution of
  this software is strictly prohibited.
  Input File: ring_osc.sp                                                       
  Command line options: /tools/synopsys/hspice/M-2017.03-2/hspice/linux64/hspice -hdlpath ../code/ -i ring_osc.sp -o ring_osc
 lic:  
 lic: FLEXlm: SDK_11.6.4 
 lic: USER:   huanlin              HOSTNAME: bwrcr720-9.EECS.Berkeley.EDU 
 lic: HOSTID: "c81f66d1c575"       PID:      43846 
 lic: Using FLEXlm license file: 
 lic: 1701@sunv40z-1.eecs.berkeley.edu 
 lic: Checkout 1 hspice 
 lic: License/Maintenance for hspice will expire on 19-dec-2017/2016.06 
 lic: 1(in_use)/50(total) FLOATING license(s) on SERVER 1701@sunv40z-1.eecs.berkeley.edu 
 lic:   
 **info** *pvaI* current limit stacksize=10485760, set new limit stacksize=62914560

 **info** *pvaI* Module (bsimsoi): 7 unexpanded port, 0 init, 4082 behav, 72 contrib, 39/3050 expr(s)

 **info** *pvaI*        Has DIS(DT PC), 2/48 afCount, 0 MT, dlg, 6 node(s) maybe reduced, IO(0/0/1/1)

 **info** *pvaI*        0 gmdIsThreadSafe (DT PC)

 **info** *pvaI*        0 const-G and 0 const-C, Has switchBranch, 22 bypassOpt, 0 bus2scalar, 0 vwb

 **info** *pvaI*        set_va_exp = 80 [80.0, 704.0] set by default

 **warning** *pvaW*        variable 'VDSAT' initialized but not used in RHS, deleted (../code/./bsimsoi.va:5985)

 **warning** *pvaW*        variable 'VTH' initialized but not used in RHS, deleted (../code/./bsimsoi.va:5524)

 **warning** *pvaW*        variable 'IDS' initialized but not used in RHS, deleted (../code/./bsimsoi.va:8107)

 **warning** *pvaW*        variable 'GM' initialized but not used in RHS, deleted (../code/./bsimsoi.va:8108)

 **warning** *pvaW*        variable 'GDS' initialized but not used in RHS, deleted (../code/./bsimsoi.va:8109)

 **warning** *pvaW*        variable 'GMBS' initialized but not used in RHS, deleted (../code/./bsimsoi.va:8110)

 **warning** *pvaW*        variable 'IC' initialized but not used in RHS, deleted (../code/./bsimsoi.va:8111)

 **warning** *pvaW*        variable 'IBD' initialized but not used in RHS, deleted (../code/./bsimsoi.va:8113)

 **warning** *pvaW*        variable 'IBS' initialized but not used in RHS, deleted (../code/./bsimsoi.va:8112)

 **warning** *pvaW*        variable 'IGIDL' initialized but not used in RHS, deleted (../code/./bsimsoi.va:8114)

 **warning** *pvaW*        variable 'IGISL' initialized but not used in RHS, deleted (../code/./bsimsoi.va:8115)

 **warning** *pvaW*        variable 'IGS' initialized but not used in RHS, deleted (../code/./bsimsoi.va:8116)

 **warning** *pvaW*        variable 'IGD' initialized but not used in RHS, deleted (../code/./bsimsoi.va:8117)

 **warning** *pvaW*        variable 'IGB' initialized but not used in RHS, deleted (../code/./bsimsoi.va:8118)

 **warning** *pvaW*        variable 'IGCS' initialized but not used in RHS, deleted (../code/./bsimsoi.va:8119)

 **warning** *pvaW*        variable 'IGCD' initialized but not used in RHS, deleted (../code/./bsimsoi.va:8120)

 **warning** *pvaW*        variable 'CGG' initialized but not used in RHS, deleted (../code/./bsimsoi.va:8131)

 **warning** *pvaW*        variable 'CGS' initialized but not used in RHS, deleted (../code/./bsimsoi.va:8134)

 **warning** *pvaW*        variable 'CGD' initialized but not used in RHS, deleted (../code/./bsimsoi.va:8135)

 **warning** *pvaW*        variable 'CBG' initialized but not used in RHS, deleted (../code/./bsimsoi.va:8136)

 **warning** *pvaW*        variable 'CBS' initialized but not used in RHS, deleted (../code/./bsimsoi.va:8138)

 **warning** *pvaW*        variable 'CBD' initialized but not used in RHS, deleted (../code/./bsimsoi.va:8137)

 **warning** *pvaW*        variable 'CDG' initialized but not used in RHS, deleted (../code/./bsimsoi.va:8139)

 **warning** *pvaW*        variable 'CDD' initialized but not used in RHS, deleted (../code/./bsimsoi.va:8140)

 **warning** *pvaW*        variable 'CDS' initialized but not used in RHS, deleted (../code/./bsimsoi.va:8141)

 **warning** *pvaW*        variable 'CAPBD' initialized but not used in RHS, deleted (../code/./bsimsoi.va:8144)

 **warning** *pvaW*        variable 'CAPBS' initialized but not used in RHS, deleted (../code/./bsimsoi.va:8145)

 **warning** *pvaW*        variable 'QS' initialized but not used in RHS, deleted (../code/./bsimsoi.va:8126)

 **warning** *pvaW*        variable 'T_TOTAL_K' initialized but not used in RHS, deleted (../code/./bsimsoi.va:4419)

 **warning** *pvaW*        variable 'T_TOTAL_C' initialized but not used in RHS, deleted (../code/./bsimsoi.va:4420)

 **warning** *pvaW*        variable 'T_DELTA_SH' initialized but not used in RHS, deleted (../code/./bsimsoi.va:4421)

 **info** *pvaI*        generated 5 flow node(s) during compilation.

 **info** *pvaI* #### Total 565 line-size(s), 39/3050 expr(s), 72 contr(s), 0 init(s), 4082 behav(s), 7 port(s)

 Loading pVA library ring_osc.pvadir/pvaRTL_linux64.so...
  **warning** pivtol too large ** reset to half minimum value of (gmindc,gmin)
1****** HSPICE -- M-2017.03-2 linux64 (Apr 27 2017) ******                      
 ******  
 * 51 stage ring-osc.

 ****** circuit name directory
 circuit number to circuit name directory
   number circuitname                     definition         multiplier
        0 main circuit
        1 xinv1.                          inv25              1.00 
        2 xinv2.                          inv25              1.00 
        3 xinv5.                          inv1               1.00 
        4 xinv11.                         inv1               1.00 
        5 xinv1.xinv1.                    inv5               1.00 
        6 xinv1.xinv2.                    inv5               1.00 
        7 xinv1.xinv3.                    inv5               1.00 
        8 xinv1.xinv4.                    inv5               1.00 
        9 xinv1.xinv5.                    inv5               1.00 
       10 xinv2.xinv1.                    inv5               1.00 
       11 xinv2.xinv2.                    inv5               1.00 
       12 xinv2.xinv3.                    inv5               1.00 
       13 xinv2.xinv4.                    inv5               1.00 
       14 xinv2.xinv5.                    inv5               1.00 
       15 xinv5.xn1.                      bsimsoi(va)        1.00 
       16 xinv5.xp1.                      bsimsoi(va)        1.00 
       17 xinv11.xn1.                     bsimsoi(va)        1.00 
       18 xinv11.xp1.                     bsimsoi(va)        1.00 
       19 xinv1.xinv1.xinv1.              inv1               1.00 
       20 xinv1.xinv1.xinv2.              inv1               1.00 
       21 xinv1.xinv1.xinv3.              inv1               1.00 
       22 xinv1.xinv1.xinv4.              inv1               1.00 
       23 xinv1.xinv1.xinv5.              inv1               1.00 
       24 xinv1.xinv2.xinv1.              inv1               1.00 
       25 xinv1.xinv2.xinv2.              inv1               1.00 
       26 xinv1.xinv2.xinv3.              inv1               1.00 
       27 xinv1.xinv2.xinv4.              inv1               1.00 
       28 xinv1.xinv2.xinv5.              inv1               1.00 
       29 xinv1.xinv3.xinv1.              inv1               1.00 
       30 xinv1.xinv3.xinv2.              inv1               1.00 
       31 xinv1.xinv3.xinv3.              inv1               1.00 
       32 xinv1.xinv3.xinv4.              inv1               1.00 
       33 xinv1.xinv3.xinv5.              inv1               1.00 
       34 xinv1.xinv4.xinv1.              inv1               1.00 
       35 xinv1.xinv4.xinv2.              inv1               1.00 
       36 xinv1.xinv4.xinv3.              inv1               1.00 
       37 xinv1.xinv4.xinv4.              inv1               1.00 
       38 xinv1.xinv4.xinv5.              inv1               1.00 
       39 xinv1.xinv5.xinv1.              inv1               1.00 
       40 xinv1.xinv5.xinv2.              inv1               1.00 
       41 xinv1.xinv5.xinv3.              inv1               1.00 
       42 xinv1.xinv5.xinv4.              inv1               1.00 
       43 xinv1.xinv5.xinv5.              inv1               1.00 
       44 xinv2.xinv1.xinv1.              inv1               1.00 
       45 xinv2.xinv1.xinv2.              inv1               1.00 
       46 xinv2.xinv1.xinv3.              inv1               1.00 
       47 xinv2.xinv1.xinv4.              inv1               1.00 
       48 xinv2.xinv1.xinv5.              inv1               1.00 
       49 xinv2.xinv2.xinv1.              inv1               1.00 
       50 xinv2.xinv2.xinv2.              inv1               1.00 
       51 xinv2.xinv2.xinv3.              inv1               1.00 
       52 xinv2.xinv2.xinv4.              inv1               1.00 
       53 xinv2.xinv2.xinv5.              inv1               1.00 
       54 xinv2.xinv3.xinv1.              inv1               1.00 
       55 xinv2.xinv3.xinv2.              inv1               1.00 
       56 xinv2.xinv3.xinv3.              inv1               1.00 
       57 xinv2.xinv3.xinv4.              inv1               1.00 
       58 xinv2.xinv3.xinv5.              inv1               1.00 
       59 xinv2.xinv4.xinv1.              inv1               1.00 
       60 xinv2.xinv4.xinv2.              inv1               1.00 
       61 xinv2.xinv4.xinv3.              inv1               1.00 
       62 xinv2.xinv4.xinv4.              inv1               1.00 
       63 xinv2.xinv4.xinv5.              inv1               1.00 
       64 xinv2.xinv5.xinv1.              inv1               1.00 
       65 xinv2.xinv5.xinv2.              inv1               1.00 
       66 xinv2.xinv5.xinv3.              inv1               1.00 
       67 xinv2.xinv5.xinv4.              inv1               1.00 
       68 xinv2.xinv5.xinv5.              inv1               1.00 
       69 xinv1.xinv1.xinv1.xn1.          bsimsoi(va)        1.00 
       70 xinv1.xinv1.xinv1.xp1.          bsimsoi(va)        1.00 
       71 xinv1.xinv1.xinv2.xn1.          bsimsoi(va)        1.00 
       72 xinv1.xinv1.xinv2.xp1.          bsimsoi(va)        1.00 
       73 xinv1.xinv1.xinv3.xn1.          bsimsoi(va)        1.00 
       74 xinv1.xinv1.xinv3.xp1.          bsimsoi(va)        1.00 
       75 xinv1.xinv1.xinv4.xn1.          bsimsoi(va)        1.00 
       76 xinv1.xinv1.xinv4.xp1.          bsimsoi(va)        1.00 
       77 xinv1.xinv1.xinv5.xn1.          bsimsoi(va)        1.00 
       78 xinv1.xinv1.xinv5.xp1.          bsimsoi(va)        1.00 
       79 xinv1.xinv2.xinv1.xn1.          bsimsoi(va)        1.00 
       80 xinv1.xinv2.xinv1.xp1.          bsimsoi(va)        1.00 
       81 xinv1.xinv2.xinv2.xn1.          bsimsoi(va)        1.00 
       82 xinv1.xinv2.xinv2.xp1.          bsimsoi(va)        1.00 
       83 xinv1.xinv2.xinv3.xn1.          bsimsoi(va)        1.00 
       84 xinv1.xinv2.xinv3.xp1.          bsimsoi(va)        1.00 
       85 xinv1.xinv2.xinv4.xn1.          bsimsoi(va)        1.00 
       86 xinv1.xinv2.xinv4.xp1.          bsimsoi(va)        1.00 
       87 xinv1.xinv2.xinv5.xn1.          bsimsoi(va)        1.00 
       88 xinv1.xinv2.xinv5.xp1.          bsimsoi(va)        1.00 
       89 xinv1.xinv3.xinv1.xn1.          bsimsoi(va)        1.00 
       90 xinv1.xinv3.xinv1.xp1.          bsimsoi(va)        1.00 
       91 xinv1.xinv3.xinv2.xn1.          bsimsoi(va)        1.00 
       92 xinv1.xinv3.xinv2.xp1.          bsimsoi(va)        1.00 
       93 xinv1.xinv3.xinv3.xn1.          bsimsoi(va)        1.00 
       94 xinv1.xinv3.xinv3.xp1.          bsimsoi(va)        1.00 
       95 xinv1.xinv3.xinv4.xn1.          bsimsoi(va)        1.00 
       96 xinv1.xinv3.xinv4.xp1.          bsimsoi(va)        1.00 
       97 xinv1.xinv3.xinv5.xn1.          bsimsoi(va)        1.00 
       98 xinv1.xinv3.xinv5.xp1.          bsimsoi(va)        1.00 
       99 xinv1.xinv4.xinv1.xn1.          bsimsoi(va)        1.00 
      100 xinv1.xinv4.xinv1.xp1.          bsimsoi(va)        1.00 
      101 xinv1.xinv4.xinv2.xn1.          bsimsoi(va)        1.00 
      102 xinv1.xinv4.xinv2.xp1.          bsimsoi(va)        1.00 
      103 xinv1.xinv4.xinv3.xn1.          bsimsoi(va)        1.00 
      104 xinv1.xinv4.xinv3.xp1.          bsimsoi(va)        1.00 
      105 xinv1.xinv4.xinv4.xn1.          bsimsoi(va)        1.00 
      106 xinv1.xinv4.xinv4.xp1.          bsimsoi(va)        1.00 
      107 xinv1.xinv4.xinv5.xn1.          bsimsoi(va)        1.00 
      108 xinv1.xinv4.xinv5.xp1.          bsimsoi(va)        1.00 
      109 xinv1.xinv5.xinv1.xn1.          bsimsoi(va)        1.00 
      110 xinv1.xinv5.xinv1.xp1.          bsimsoi(va)        1.00 
      111 xinv1.xinv5.xinv2.xn1.          bsimsoi(va)        1.00 
      112 xinv1.xinv5.xinv2.xp1.          bsimsoi(va)        1.00 
      113 xinv1.xinv5.xinv3.xn1.          bsimsoi(va)        1.00 
      114 xinv1.xinv5.xinv3.xp1.          bsimsoi(va)        1.00 
      115 xinv1.xinv5.xinv4.xn1.          bsimsoi(va)        1.00 
      116 xinv1.xinv5.xinv4.xp1.          bsimsoi(va)        1.00 
      117 xinv1.xinv5.xinv5.xn1.          bsimsoi(va)        1.00 
      118 xinv1.xinv5.xinv5.xp1.          bsimsoi(va)        1.00 
      119 xinv2.xinv1.xinv1.xn1.          bsimsoi(va)        1.00 
      120 xinv2.xinv1.xinv1.xp1.          bsimsoi(va)        1.00 
      121 xinv2.xinv1.xinv2.xn1.          bsimsoi(va)        1.00 
      122 xinv2.xinv1.xinv2.xp1.          bsimsoi(va)        1.00 
      123 xinv2.xinv1.xinv3.xn1.          bsimsoi(va)        1.00 
      124 xinv2.xinv1.xinv3.xp1.          bsimsoi(va)        1.00 
      125 xinv2.xinv1.xinv4.xn1.          bsimsoi(va)        1.00 
      126 xinv2.xinv1.xinv4.xp1.          bsimsoi(va)        1.00 
      127 xinv2.xinv1.xinv5.xn1.          bsimsoi(va)        1.00 
      128 xinv2.xinv1.xinv5.xp1.          bsimsoi(va)        1.00 
      129 xinv2.xinv2.xinv1.xn1.          bsimsoi(va)        1.00 
      130 xinv2.xinv2.xinv1.xp1.          bsimsoi(va)        1.00 
      131 xinv2.xinv2.xinv2.xn1.          bsimsoi(va)        1.00 
      132 xinv2.xinv2.xinv2.xp1.          bsimsoi(va)        1.00 
      133 xinv2.xinv2.xinv3.xn1.          bsimsoi(va)        1.00 
      134 xinv2.xinv2.xinv3.xp1.          bsimsoi(va)        1.00 
      135 xinv2.xinv2.xinv4.xn1.          bsimsoi(va)        1.00 
      136 xinv2.xinv2.xinv4.xp1.          bsimsoi(va)        1.00 
      137 xinv2.xinv2.xinv5.xn1.          bsimsoi(va)        1.00 
      138 xinv2.xinv2.xinv5.xp1.          bsimsoi(va)        1.00 
      139 xinv2.xinv3.xinv1.xn1.          bsimsoi(va)        1.00 
      140 xinv2.xinv3.xinv1.xp1.          bsimsoi(va)        1.00 
      141 xinv2.xinv3.xinv2.xn1.          bsimsoi(va)        1.00 
      142 xinv2.xinv3.xinv2.xp1.          bsimsoi(va)        1.00 
      143 xinv2.xinv3.xinv3.xn1.          bsimsoi(va)        1.00 
      144 xinv2.xinv3.xinv3.xp1.          bsimsoi(va)        1.00 
      145 xinv2.xinv3.xinv4.xn1.          bsimsoi(va)        1.00 
      146 xinv2.xinv3.xinv4.xp1.          bsimsoi(va)        1.00 
      147 xinv2.xinv3.xinv5.xn1.          bsimsoi(va)        1.00 
      148 xinv2.xinv3.xinv5.xp1.          bsimsoi(va)        1.00 
      149 xinv2.xinv4.xinv1.xn1.          bsimsoi(va)        1.00 
      150 xinv2.xinv4.xinv1.xp1.          bsimsoi(va)        1.00 
      151 xinv2.xinv4.xinv2.xn1.          bsimsoi(va)        1.00 
      152 xinv2.xinv4.xinv2.xp1.          bsimsoi(va)        1.00 
      153 xinv2.xinv4.xinv3.xn1.          bsimsoi(va)        1.00 
      154 xinv2.xinv4.xinv3.xp1.          bsimsoi(va)        1.00 
      155 xinv2.xinv4.xinv4.xn1.          bsimsoi(va)        1.00 
      156 xinv2.xinv4.xinv4.xp1.          bsimsoi(va)        1.00 
      157 xinv2.xinv4.xinv5.xn1.          bsimsoi(va)        1.00 
      158 xinv2.xinv4.xinv5.xp1.          bsimsoi(va)        1.00 
      159 xinv2.xinv5.xinv1.xn1.          bsimsoi(va)        1.00 
      160 xinv2.xinv5.xinv1.xp1.          bsimsoi(va)        1.00 
      161 xinv2.xinv5.xinv2.xn1.          bsimsoi(va)        1.00 
      162 xinv2.xinv5.xinv2.xp1.          bsimsoi(va)        1.00 
      163 xinv2.xinv5.xinv3.xn1.          bsimsoi(va)        1.00 
      164 xinv2.xinv5.xinv3.xp1.          bsimsoi(va)        1.00 
      165 xinv2.xinv5.xinv4.xn1.          bsimsoi(va)        1.00 
      166 xinv2.xinv5.xinv4.xp1.          bsimsoi(va)        1.00 
      167 xinv2.xinv5.xinv5.xn1.          bsimsoi(va)        1.00 
      168 xinv2.xinv5.xinv5.xp1.          bsimsoi(va)        1.00 
  **warning** (ring_osc.sp:8) pulse vdd period too small, reset to 2.000000
  **warning** (ring_osc.sp:7) pulse vin period too small, reset to 2.000000
 **info** *pvaI* Creating VA module (bsimsoi) for instance XINV2.XINV5.XINV5.XP1

 **info** *pvaI* Module (bsimsoi): node 'db' shorted with port 'b' (../code/./bsimsoi.va:8066)

 **info** *pvaI* Module (bsimsoi): node 'gi' shorted with port 'gm' (../code/./bsimsoi.va:8047)

 **info** *pvaI* Module (bsimsoi): node 'gm' shorted with port 'g' (../code/./bsimsoi.va:8039)

 **info** *pvaI* Module (bsimsoi): node 'sb' shorted with port 'b' (../code/./bsimsoi.va:8067)

 **info** *pvaI*  4           nodes and 6 branches eliminated for module 'bsimsoi'

 **info** *pvaI*   3 port(s) not connected

 **info** *pvaI*        termCount=18 diwSize=368 probeSize=2287 Qsize=15 Isize=27

 End of GMD creation on Wed May 24 13:18:53 2017	GTM/In-use: 35.8750/33.4192 MB


 **info** *pvaI* Creating VA module (bsimsoi) for instance XINV2.XINV5.XINV5.XN1

 **info** *pvaI* Module (bsimsoi): node 'db' shorted with port 'b' (../code/./bsimsoi.va:8066)

 **info** *pvaI* Module (bsimsoi): node 'gi' shorted with port 'gm' (../code/./bsimsoi.va:8047)

 **info** *pvaI* Module (bsimsoi): node 'gm' shorted with port 'g' (../code/./bsimsoi.va:8039)

 **info** *pvaI* Module (bsimsoi): node 'sb' shorted with port 'b' (../code/./bsimsoi.va:8067)

 **info** *pvaI*  4           nodes and 6 branches eliminated for module 'bsimsoi'

 **info** *pvaI*   3 port(s) not connected

 **info** *pvaI*        termCount=18 diwSize=368 probeSize=0 Qsize=15 Isize=27

 End of GMD creation on Wed May 24 13:18:53 2017	GTM/In-use: 35.8750/33.4314 MB


  
      
 *****************************************************************
 ******  option summary
 ******
 runlvl  = 3         bypass  = 2.0000    
 End of pVA setup    on Wed May 24 13:18:53 2017	GTM/In-use: 36.0000/35.6988 MB


 Begin of pVA simulation on Wed May 24 13:18:53 2017	GTM/In-use: 36.0000/35.6988 MB


 **info** dc convergence successful at Newton-Raphson method 
 ******  
 * 51 stage ring-osc.

 ****** operating point information tnom=  25.000 temp=  25.000 ******
 ****** operating point status is voltage   simulation time is     0.     
      node    =voltage        node    =voltage        node    =voltage

 +  0:buf     = -11.4471n   0:dd      =   0.        0:in      =   1.8059 
 +  0:out     =-194.0983m   0:out25   =   0.        0:out50   =-402.6274n
 +  0:ss      =   0.        0:sub     =   0.        1:1       =-1.502e-25
 +  1:2       =   0.        1:3       =   0.        1:4       =   0.     
 +  2:1       =   0.        2:2       =   0.        2:3       =   0.     
 +  2:4       =   0.        5:1       =  30.0141n   5:2       =  31.7761f
 +  5:3       =-6.398e-20   5:4       =-1.955e-21   6:1       =   0.     
 +  6:2       =   0.        6:3       =   0.        6:4       =   0.     
 +  7:1       =   0.        7:2       =   0.        7:3       =   0.     
 +  7:4       =   0.        8:1       =   0.        8:2       =   0.     
 +  8:3       =   0.        8:4       =   0.        9:1       =   0.     
 +  9:2       =   0.        9:3       =   0.        9:4       =   0.     
 + 10:1       =   0.       10:2       =   0.       10:3       =   0.     
 + 10:4       =   0.       11:1       =   0.       11:2       =   0.     
 + 11:3       =   0.       11:4       =   0.       12:1       =   0.     
 + 12:2       =   0.       12:3       =   0.       12:4       =   0.     
 + 13:1       =   0.       13:2       =   0.       13:3       =   0.     
 + 13:4       =   0.       14:1       =-4.369e-27  14:2       =-1.308e-22
 + 14:3       =  -2.2017a  14:4       =-426.3155f

 **info** *pvaI* minimum timestep = 2e-19

 ******
 * 51 stage ring-osc.

 ****** transient analysis tnom=  25.000 temp=  25.000 ******
x

 time         voltage    voltage   
             out25      out50      
    0.          0.      -402.6274n 
  200.00000p  145.1781m  128.9552m 
  400.00000p  293.8382m  276.7291m 
  600.00000p  464.0553m  465.3906m 
  800.00000p  625.4058m  649.9673m 
    1.00000n   25.3684m    1.4573  
    1.20000n   28.1194u    1.4999  
    1.40000n   15.9458u    1.5000  
    1.60000n   13.1487u    1.5000  
    1.80000n    9.4528u    1.5000  
    2.00000n    6.6358u    1.5000  
    2.20000n    7.8705u    1.5000  
    2.40000n    5.9922u    1.5000  
    2.60000n    3.8125u    1.5000  
    2.80000n    4.7900u    1.5000  
    3.00000n    4.3727u    1.5000  
    3.20000n    4.0628u    1.4999  
    3.40000n    3.8029u    1.5000  
    3.60000n -314.7606u    1.5000  
    3.80000n    1.4920     1.5000  
    4.00000n    1.5000     1.5000  
    4.20000n    1.5000     1.5000  
    4.40000n    1.5000     1.5794  
    4.60000n    1.5000     1.6885m 
    4.80000n    1.5000    13.6877u 
    5.00000n    1.5000    11.0209u 
    5.20000n    1.4889   574.6382n 
    5.40000n    7.6995m    7.0694u 
    5.60000n   12.2714u    8.3382u 
    5.80000n    5.0904u   11.4884u 
    6.00000n    5.0043u  622.3335u 
    6.20000n    4.9317u    1.4930  
    6.40000n    4.8657u    1.4999  
    6.60000n    4.8080u    1.5000  
    6.80000n   -6.5360u    1.5000  
    7.00000n    1.3755     1.5000  
    7.20000n    1.4999     1.5000  
    7.40000n    1.5000     1.5000  
    7.60000n    1.5000     1.5000  
    7.80000n    1.5000     1.6274  
    8.00000n    1.5000     2.2522m 
    8.20000n    1.5000    11.3971u 
    8.40000n    1.5000     6.1844u 
    8.60000n    1.5005     6.5310u 
    8.80000n   84.2156m    5.8917u 
    9.00000n   74.3574u    3.9195u 
    9.20000n    4.9142u    8.5506u 
    9.40000n    4.8136u    4.0307u 
    9.60000n    4.7819u    1.3714  
    9.80000n    4.7521u    1.4994  
   10.00000n    4.7241u    1.5000  
y

          ***** job concluded
 ******  
 * 51 stage ring-osc.

 ****** job statistics summary tnom=  25.000 temp=  25.000 ******
  
  
 ******  Machine Information  ******
 CPU:
 model name	: Intel(R) Xeon(R) CPU E5-2643 v2 @ 3.50GHz
 cpu MHz	: 3499.958
  
 OS:
 Linux version 2.6.32-696.el6.x86_64 (mockbuild@x86-027.build.eng.bos.redhat.com) (gcc version 4.4.7 20120313 (Red Hat 4.4.7-18) (GCC) ) #1 SMP Tue Feb 21 00:53:17 EST 2017


  ******  HSPICE Threads Information  ******

  Command Line Threads Count :     1
  Available CPU Count        :    24
  Actual Threads Count       :     1


  ******  Circuit Statistics  ******
  # nodes       =     993 # elements   =     109
  # resistors   =       0 # capacitors =       1 # inductors   =       0
  # mutual_inds =       0 # vccs       =       0 # vcvs        =       0
  # cccs        =       0 # ccvs       =       0 # volt_srcs   =       4
  # curr_srcs   =       0 # diodes     =       0 # bjts        =       0
  # jfets       =       0 # mosfets    =       0 # U elements  =       0
  # T elements  =       0 # W elements =       0 # B elements  =       0
  # S elements  =       0 # P elements =       0 # va device   =     104
  # vector_srcs =       0 # N elements =       0


  ******  Runtime Statistics (seconds)  ******

  analysis           time    # points   tot. iter  conv.iter
  op point           0.16           1          66
  transient          3.67          51        5048         980 rev=        83
  readin             6.31
  errchk             0.08
  setup              0.01
  output             0.00


           peak memory used        312.34 megabytes
           total cpu time           10.23 seconds
           total elapsed time       20.97 seconds
           job started at     13:18:36 05/24/2017
           job ended   at     13:18:57 05/24/2017


 lic: Release hspice token(s) 
 lic: total license checkout elapse time:        0.19(s)
