 ****** HSPICE -- K-2015.06-SP2 linux64 (Nov 18 2015) ******                    
  Copyright (c) 1986 - 2021 by Synopsys, Inc. All Rights Reserved.              
  This software and the associated documentation are proprietary
  to Synopsys, Inc. This software may only be used in accordance
  with the terms and conditions of a written license agreement with
  Synopsys, Inc. All other use, reproduction, or distribution of
  this software is strictly prohibited.
  Input File: test1.sp                                                          
  Command line options: /usr/local/packages/synopsys_2015/hspice/hspice/linux64/hspice -hdlpath ../code/ -i test1.sp -o test1
 lic:  
 lic: FLEXlm: v11.2.1 
 lic: USER:   ccatalino            HOSTNAME: koopa.ece.utexas.edu 
 lic: HOSTID: "e4434bc49dca"       PID:      35184 
 lic: Using FLEXlm license file: 
 lic: /usr/local/packages/synopsys_2015/key 
 lic: Checkout 1 hspice 
 lic: License/Maintenance for hspice will expire on 14-jan-2023/2020.12 
 lic: 1(in_use)/100(total) FLOATING license(s) on SERVER /usr/local/packages/synopsys_2015/key 
 lic:   
 Init: read install configuration file: /usr/local/packages/synopsys_2015/hspice/hspice/meta.cfg
 **info** *pvaI* current limit stacksize=8388608, set new limit stacksize=62914560

1****** HSPICE -- K-2015.06-SP2 linux64 (Nov 18 2015) ******                    
 ******  
 *id-vd characteristics for nmos

 ****** circuit name directory
 circuit number to circuit name directory
   number circuitname                     definition         multiplier
        0 main circuit
        1 x1.                             bsimsoi(va)        1.00 
 **info** *pvaI* Creating VA module (bsimsoi) for instance X1

 **info** *pvaI* Module (bsimsoi): node 'db' shorted with port 'b' (../code/./bsimsoi.va:8066)

 **info** *pvaI* Module (bsimsoi): node 'gi' shorted with port 'gm' (../code/./bsimsoi.va:8047)

 **info** *pvaI* Module (bsimsoi): node 'gm' shorted with port 'g' (../code/./bsimsoi.va:8039)

 **info** *pvaI* Module (bsimsoi): node 'sb' shorted with port 'b' (../code/./bsimsoi.va:8067)

 **info** *pvaI*  4           nodes and 6 branches eliminated for module 'bsimsoi'

 **info** *pvaI*   3 port(s) not connected

 **info** *pvaI*        termCount=18 diwSize=368 probeSize=2287 Qsize=15 Isize=27

 End of GMD creation on Thu Apr 15 08:08:41 2021	GTM/In-use: 9.2500/8.3046 MB


  
      
  **warning**  : DCD ignored due to DCD=0.0 or DCD_TYPE=0
 *****************************************************************
 ******  option summary
 ******
 runlvl  = 3         bypass  = 2         
  Opening plot unit= 15
 file=test1.pa0

 ******
 *id-vd characteristics for nmos

 ****** dc transfer curves tnom=  25.000 temp=  25.000 ******
  *** parameter 0:vg  =   0.200       ***
  
x

 volt         current   
             x1.d       
  0.         -8.553e-20 
  1.0000e-02  4.830e-11 
  2.0000e-02  9.391e-11 
  3.0000e-02  1.363e-10 
  4.0000e-02  1.759e-10 
  5.0000e-02  2.140e-10 
  6.0000e-02  2.521e-10 
  7.0000e-02  2.917e-10 
  8.0000e-02  3.340e-10 
  9.0000e-02  3.800e-10 
  0.1000      4.304e-10 
  0.1100      4.860e-10 
  0.1200      5.474e-10 
  0.1300      6.154e-10 
  0.1400      6.908e-10 
  0.1500      7.745e-10 
  0.1600      8.672e-10 
  0.1700      9.700e-10 
  0.1800      1.084e-09 
  0.1900      1.210e-09 
  0.2000      1.350e-09 
  0.2100      1.505e-09 
  0.2200      1.677e-09 
  0.2300      1.866e-09 
  0.2400      2.076e-09 
  0.2500      2.308e-09 
  0.2600      2.564e-09 
  0.2700      2.846e-09 
  0.2800      3.158e-09 
  0.2900      3.501e-09 
  0.3000      3.880e-09 
  0.3100      4.297e-09 
  0.3200      4.756e-09 
  0.3300      5.260e-09 
  0.3400      5.816e-09 
  0.3500      6.426e-09 
  0.3600      7.095e-09 
  0.3700      7.831e-09 
  0.3800      8.638e-09 
  0.3900      9.523e-09 
  0.4000      1.049e-08 
  0.4100      1.155e-08 
  0.4200      1.272e-08 
  0.4300      1.399e-08 
  0.4400      1.538e-08 
  0.4500      1.690e-08 
  0.4600      1.856e-08 
  0.4700      2.037e-08 
  0.4800      2.235e-08 
  0.4900      2.451e-08 
  0.5000      2.686e-08 
  0.5100      2.943e-08 
  0.5200      3.222e-08 
  0.5300      3.526e-08 
  0.5400      3.856e-08 
  0.5500      4.215e-08 
  0.5600      4.606e-08 
  0.5700      5.030e-08 
  0.5800      5.491e-08 
  0.5900      5.991e-08 
  0.6000      6.533e-08 
  0.6100      7.121e-08 
  0.6200      7.758e-08 
  0.6300      8.448e-08 
  0.6400      9.196e-08 
  0.6500      1.001e-07 
  0.6600      1.088e-07 
  0.6700      1.183e-07 
  0.6800      1.286e-07 
  0.6900      1.396e-07 
  0.7000      1.516e-07 
  0.7100      1.646e-07 
  0.7200      1.786e-07 
  0.7300      1.937e-07 
  0.7400      2.101e-07 
  0.7500      2.278e-07 
  0.7600      2.469e-07 
  0.7700      2.676e-07 
  0.7800      2.900e-07 
  0.7900      3.141e-07 
  0.8000      3.403e-07 
  0.8100      3.686e-07 
  0.8200      3.993e-07 
  0.8300      4.325e-07 
  0.8400      4.685e-07 
  0.8500      5.075e-07 
  0.8600      5.499e-07 
  0.8700      5.958e-07 
  0.8800      6.457e-07 
  0.8900      6.999e-07 
  0.9000      7.588e-07 
  0.9100      8.228e-07 
  0.9200      8.923e-07 
  0.9300      9.677e-07 
  0.9400      1.050e-06 
  0.9500      1.138e-06 
  0.9600      1.235e-06 
  0.9700      1.339e-06 
  0.9800      1.451e-06 
  0.9900      1.572e-06 
  1.0000      1.702e-06 
  1.0100      1.842e-06 
  1.0200      1.992e-06 
  1.0300      2.153e-06 
  1.0400      2.324e-06 
  1.0500      2.506e-06 
  1.0600      2.699e-06 
  1.0700      2.904e-06 
  1.0800      3.121e-06 
  1.0900      3.350e-06 
  1.1000      3.590e-06 
  1.1100      3.843e-06 
  1.1200      4.109e-06 
  1.1300      4.387e-06 
  1.1400      4.677e-06 
  1.1500      4.980e-06 
  1.1600      5.296e-06 
  1.1700      5.624e-06 
  1.1800      5.964e-06 
  1.1900      6.317e-06 
  1.2000      6.681e-06 
y
 ******
 *id-vd characteristics for nmos

 ****** dc transfer curves tnom=  25.000 temp=  25.000 ******
  *** parameter 0:vg  =   0.300       ***
  
x

 volt         current   
             x1.d       
  0.         -1.905e-19 
  1.0000e-02  5.667e-10 
  2.0000e-02  1.097e-09 
  3.0000e-02  1.586e-09 
  4.0000e-02  2.039e-09 
  5.0000e-02  2.470e-09 
  6.0000e-02  2.897e-09 
  7.0000e-02  3.338e-09 
  8.0000e-02  3.805e-09 
  9.0000e-02  4.310e-09 
  0.1000      4.859e-09 
  0.1100      5.461e-09 
  0.1200      6.122e-09 
  0.1300      6.849e-09 
  0.1400      7.650e-09 
  0.1500      8.533e-09 
  0.1600      9.505e-09 
  0.1700      1.058e-08 
  0.1800      1.175e-08 
  0.1900      1.305e-08 
  0.2000      1.448e-08 
  0.2100      1.605e-08 
  0.2200      1.777e-08 
  0.2300      1.967e-08 
  0.2400      2.174e-08 
  0.2500      2.402e-08 
  0.2600      2.652e-08 
  0.2700      2.925e-08 
  0.2800      3.224e-08 
  0.2900      3.551e-08 
  0.3000      3.909e-08 
  0.3100      4.299e-08 
  0.3200      4.726e-08 
  0.3300      5.191e-08 
  0.3400      5.698e-08 
  0.3500      6.250e-08 
  0.3600      6.851e-08 
  0.3700      7.505e-08 
  0.3800      8.217e-08 
  0.3900      8.990e-08 
  0.4000      9.829e-08 
  0.4100      1.074e-07 
  0.4200      1.173e-07 
  0.4300      1.280e-07 
  0.4400      1.396e-07 
  0.4500      1.522e-07 
  0.4600      1.658e-07 
  0.4700      1.805e-07 
  0.4800      1.965e-07 
  0.4900      2.137e-07 
  0.5000      2.322e-07 
  0.5100      2.523e-07 
  0.5200      2.739e-07 
  0.5300      2.973e-07 
  0.5400      3.225e-07 
  0.5500      3.496e-07 
  0.5600      3.788e-07 
  0.5700      4.103e-07 
  0.5800      4.442e-07 
  0.5900      4.807e-07 
  0.6000      5.199e-07 
  0.6100      5.621e-07 
  0.6200      6.075e-07 
  0.6300      6.564e-07 
  0.6400      7.089e-07 
  0.6500      7.653e-07 
  0.6600      8.260e-07 
  0.6700      8.912e-07 
  0.6800      9.613e-07 
  0.6900      1.037e-06 
  0.7000      1.117e-06 
  0.7100      1.204e-06 
  0.7200      1.298e-06 
  0.7300      1.398e-06 
  0.7400      1.505e-06 
  0.7500      1.620e-06 
  0.7600      1.744e-06 
  0.7700      1.876e-06 
  0.7800      2.017e-06 
  0.7900      2.168e-06 
  0.8000      2.329e-06 
  0.8100      2.500e-06 
  0.8200      2.682e-06 
  0.8300      2.875e-06 
  0.8400      3.080e-06 
  0.8500      3.297e-06 
  0.8600      3.525e-06 
  0.8700      3.766e-06 
  0.8800      4.018e-06 
  0.8900      4.283e-06 
  0.9000      4.560e-06 
  0.9100      4.850e-06 
  0.9200      5.151e-06 
  0.9300      5.465e-06 
  0.9400      5.791e-06 
  0.9500      6.128e-06 
  0.9600      6.477e-06 
  0.9700      6.837e-06 
  0.9800      7.209e-06 
  0.9900      7.592e-06 
  1.0000      7.985e-06 
  1.0100      8.389e-06 
  1.0200      8.803e-06 
  1.0300      9.227e-06 
  1.0400      9.661e-06 
  1.0500      1.010e-05 
  1.0600      1.056e-05 
  1.0700      1.102e-05 
  1.0800      1.149e-05 
  1.0900      1.197e-05 
  1.1000      1.245e-05 
  1.1100      1.295e-05 
  1.1200      1.345e-05 
  1.1300      1.396e-05 
  1.1400      1.447e-05 
  1.1500      1.499e-05 
  1.1600      1.552e-05 
  1.1700      1.605e-05 
  1.1800      1.659e-05 
  1.1900      1.714e-05 
  1.2000      1.769e-05 
y
 ******
 *id-vd characteristics for nmos

 ****** dc transfer curves tnom=  25.000 temp=  25.000 ******
  *** parameter 0:vg  =   0.400       ***
  
x

 volt         current   
             x1.d       
  0.         -3.749e-19 
  1.0000e-02  5.839e-09 
  2.0000e-02  1.124e-08 
  3.0000e-02  1.616e-08 
  4.0000e-02  2.066e-08 
  5.0000e-02  2.487e-08 
  6.0000e-02  2.898e-08 
  7.0000e-02  3.316e-08 
  8.0000e-02  3.753e-08 
  9.0000e-02  4.219e-08 
  0.1000      4.720e-08 
  0.1100      5.262e-08 
  0.1200      5.851e-08 
  0.1300      6.493e-08 
  0.1400      7.192e-08 
  0.1500      7.955e-08 
  0.1600      8.785e-08 
  0.1700      9.691e-08 
  0.1800      1.068e-07 
  0.1900      1.175e-07 
  0.2000      1.292e-07 
  0.2100      1.419e-07 
  0.2200      1.557e-07 
  0.2300      1.707e-07 
  0.2400      1.870e-07 
  0.2500      2.047e-07 
  0.2600      2.238e-07 
  0.2700      2.445e-07 
  0.2800      2.669e-07 
  0.2900      2.912e-07 
  0.3000      3.174e-07 
  0.3100      3.456e-07 
  0.3200      3.761e-07 
  0.3300      4.090e-07 
  0.3400      4.444e-07 
  0.3500      4.825e-07 
  0.3600      5.235e-07 
  0.3700      5.675e-07 
  0.3800      6.148e-07 
  0.3900      6.655e-07 
  0.4000      7.199e-07 
  0.4100      7.782e-07 
  0.4200      8.406e-07 
  0.4300      9.074e-07 
  0.4400      9.788e-07 
  0.4500      1.055e-06 
  0.4600      1.136e-06 
  0.4700      1.223e-06 
  0.4800      1.316e-06 
  0.4900      1.414e-06 
  0.5000      1.519e-06 
  0.5100      1.631e-06 
  0.5200      1.750e-06 
  0.5300      1.876e-06 
  0.5400      2.010e-06 
  0.5500      2.152e-06 
  0.5600      2.302e-06 
  0.5700      2.461e-06 
  0.5800      2.630e-06 
  0.5900      2.807e-06 
  0.6000      2.995e-06 
  0.6100      3.193e-06 
  0.6200      3.402e-06 
  0.6300      3.621e-06 
  0.6400      3.851e-06 
  0.6500      4.093e-06 
  0.6600      4.346e-06 
  0.6700      4.610e-06 
  0.6800      4.886e-06 
  0.6900      5.174e-06 
  0.7000      5.473e-06 
  0.7100      5.785e-06 
  0.7200      6.107e-06 
  0.7300      6.441e-06 
  0.7400      6.786e-06 
  0.7500      7.143e-06 
  0.7600      7.510e-06 
  0.7700      7.888e-06 
  0.7800      8.276e-06 
  0.7900      8.674e-06 
  0.8000      9.083e-06 
  0.8100      9.500e-06 
  0.8200      9.927e-06 
  0.8300      1.036e-05 
  0.8400      1.081e-05 
  0.8500      1.126e-05 
  0.8600      1.172e-05 
  0.8700      1.219e-05 
  0.8800      1.266e-05 
  0.8900      1.315e-05 
  0.9000      1.364e-05 
  0.9100      1.413e-05 
  0.9200      1.463e-05 
  0.9300      1.514e-05 
  0.9400      1.565e-05 
  0.9500      1.617e-05 
  0.9600      1.670e-05 
  0.9700      1.723e-05 
  0.9800      1.776e-05 
  0.9900      1.830e-05 
  1.0000      1.884e-05 
  1.0100      1.939e-05 
  1.0200      1.994e-05 
  1.0300      2.049e-05 
  1.0400      2.105e-05 
  1.0500      2.161e-05 
  1.0600      2.217e-05 
  1.0700      2.274e-05 
  1.0800      2.331e-05 
  1.0900      2.388e-05 
  1.1000      2.445e-05 
  1.1100      2.503e-05 
  1.1200      2.561e-05 
  1.1300      2.619e-05 
  1.1400      2.677e-05 
  1.1500      2.735e-05 
  1.1600      2.794e-05 
  1.1700      2.852e-05 
  1.1800      2.911e-05 
  1.1900      2.970e-05 
  1.2000      3.029e-05 
y
 ******
 *id-vd characteristics for nmos

 ****** dc transfer curves tnom=  25.000 temp=  25.000 ******
  *** parameter 0:vg  =   0.500       ***
  
x

 volt         current   
             x1.d       
  0.         -7.392e-19 
  1.0000e-02  4.493e-08 
  2.0000e-02  8.665e-08 
  3.0000e-02  1.250e-07 
  4.0000e-02  1.603e-07 
  5.0000e-02  1.932e-07 
  6.0000e-02  2.248e-07 
  7.0000e-02  2.560e-07 
  8.0000e-02  2.879e-07 
  9.0000e-02  3.211e-07 
  0.1000      3.560e-07 
  0.1100      3.932e-07 
  0.1200      4.329e-07 
  0.1300      4.754e-07 
  0.1400      5.210e-07 
  0.1500      5.698e-07 
  0.1600      6.222e-07 
  0.1700      6.784e-07 
  0.1800      7.385e-07 
  0.1900      8.029e-07 
  0.2000      8.718e-07 
  0.2100      9.453e-07 
  0.2200      1.024e-06 
  0.2300      1.107e-06 
  0.2400      1.197e-06 
  0.2500      1.291e-06 
  0.2600      1.392e-06 
  0.2700      1.499e-06 
  0.2800      1.612e-06 
  0.2900      1.732e-06 
  0.3000      1.859e-06 
  0.3100      1.993e-06 
  0.3200      2.135e-06 
  0.3300      2.284e-06 
  0.3400      2.441e-06 
  0.3500      2.606e-06 
  0.3600      2.780e-06 
  0.3700      2.962e-06 
  0.3800      3.153e-06 
  0.3900      3.353e-06 
  0.4000      3.563e-06 
  0.4100      3.782e-06 
  0.4200      4.010e-06 
  0.4300      4.248e-06 
  0.4400      4.497e-06 
  0.4500      4.755e-06 
  0.4600      5.023e-06 
  0.4700      5.302e-06 
  0.4800      5.591e-06 
  0.4900      5.891e-06 
  0.5000      6.201e-06 
  0.5100      6.521e-06 
  0.5200      6.852e-06 
  0.5300      7.192e-06 
  0.5400      7.543e-06 
  0.5500      7.904e-06 
  0.5600      8.275e-06 
  0.5700      8.656e-06 
  0.5800      9.046e-06 
  0.5900      9.446e-06 
  0.6000      9.854e-06 
  0.6100      1.027e-05 
  0.6200      1.070e-05 
  0.6300      1.113e-05 
  0.6400      1.158e-05 
  0.6500      1.203e-05 
  0.6600      1.248e-05 
  0.6700      1.295e-05 
  0.6800      1.342e-05 
  0.6900      1.390e-05 
  0.7000      1.439e-05 
  0.7100      1.488e-05 
  0.7200      1.537e-05 
  0.7300      1.588e-05 
  0.7400      1.638e-05 
  0.7500      1.690e-05 
  0.7600      1.742e-05 
  0.7700      1.794e-05 
  0.7800      1.847e-05 
  0.7900      1.900e-05 
  0.8000      1.953e-05 
  0.8100      2.007e-05 
  0.8200      2.061e-05 
  0.8300      2.116e-05 
  0.8400      2.171e-05 
  0.8500      2.226e-05 
  0.8600      2.281e-05 
  0.8700      2.337e-05 
  0.8800      2.393e-05 
  0.8900      2.449e-05 
  0.9000      2.506e-05 
  0.9100      2.562e-05 
  0.9200      2.619e-05 
  0.9300      2.676e-05 
  0.9400      2.733e-05 
  0.9500      2.790e-05 
  0.9600      2.848e-05 
  0.9700      2.905e-05 
  0.9800      2.963e-05 
  0.9900      3.021e-05 
  1.0000      3.079e-05 
  1.0100      3.137e-05 
  1.0200      3.195e-05 
  1.0300      3.253e-05 
  1.0400      3.312e-05 
  1.0500      3.370e-05 
  1.0600      3.428e-05 
  1.0700      3.487e-05 
  1.0800      3.545e-05 
  1.0900      3.604e-05 
  1.1000      3.663e-05 
  1.1100      3.721e-05 
  1.1200      3.780e-05 
  1.1300      3.839e-05 
  1.1400      3.897e-05 
  1.1500      3.956e-05 
  1.1600      4.015e-05 
  1.1700      4.074e-05 
  1.1800      4.132e-05 
  1.1900      4.191e-05 
  1.2000      4.250e-05 
y
 ******
 *id-vd characteristics for nmos

 ****** dc transfer curves tnom=  25.000 temp=  25.000 ******
  *** parameter 0:vg  =   0.600       ***
  
x

 volt         current   
             x1.d       
  0.         -1.839e-18 
  1.0000e-02  2.102e-07 
  2.0000e-02  4.114e-07 
  3.0000e-02  6.034e-07 
  4.0000e-02  7.864e-07 
  5.0000e-02  9.612e-07 
  6.0000e-02  1.129e-06 
  7.0000e-02  1.292e-06 
  8.0000e-02  1.451e-06 
  9.0000e-02  1.610e-06 
  0.1000      1.769e-06 
  0.1100      1.932e-06 
  0.1200      2.099e-06 
  0.1300      2.271e-06 
  0.1400      2.450e-06 
  0.1500      2.636e-06 
  0.1600      2.829e-06 
  0.1700      3.030e-06 
  0.1800      3.239e-06 
  0.1900      3.457e-06 
  0.2000      3.683e-06 
  0.2100      3.918e-06 
  0.2200      4.161e-06 
  0.2300      4.413e-06 
  0.2400      4.675e-06 
  0.2500      4.945e-06 
  0.2600      5.225e-06 
  0.2700      5.514e-06 
  0.2800      5.812e-06 
  0.2900      6.119e-06 
  0.3000      6.435e-06 
  0.3100      6.760e-06 
  0.3200      7.095e-06 
  0.3300      7.438e-06 
  0.3400      7.791e-06 
  0.3500      8.152e-06 
  0.3600      8.522e-06 
  0.3700      8.900e-06 
  0.3800      9.288e-06 
  0.3900      9.683e-06 
  0.4000      1.009e-05 
  0.4100      1.050e-05 
  0.4200      1.092e-05 
  0.4300      1.135e-05 
  0.4400      1.178e-05 
  0.4500      1.222e-05 
  0.4600      1.267e-05 
  0.4700      1.313e-05 
  0.4800      1.359e-05 
  0.4900      1.406e-05 
  0.5000      1.454e-05 
  0.5100      1.502e-05 
  0.5200      1.551e-05 
  0.5300      1.601e-05 
  0.5400      1.651e-05 
  0.5500      1.701e-05 
  0.5600      1.752e-05 
  0.5700      1.804e-05 
  0.5800      1.855e-05 
  0.5900      1.908e-05 
  0.6000      1.961e-05 
  0.6100      2.014e-05 
  0.6200      2.067e-05 
  0.6300      2.121e-05 
  0.6400      2.176e-05 
  0.6500      2.230e-05 
  0.6600      2.285e-05 
  0.6700      2.340e-05 
  0.6800      2.396e-05 
  0.6900      2.452e-05 
  0.7000      2.508e-05 
  0.7100      2.564e-05 
  0.7200      2.620e-05 
  0.7300      2.677e-05 
  0.7400      2.733e-05 
  0.7500      2.790e-05 
  0.7600      2.848e-05 
  0.7700      2.905e-05 
  0.7800      2.962e-05 
  0.7900      3.020e-05 
  0.8000      3.077e-05 
  0.8100      3.135e-05 
  0.8200      3.193e-05 
  0.8300      3.251e-05 
  0.8400      3.309e-05 
  0.8500      3.367e-05 
  0.8600      3.425e-05 
  0.8700      3.483e-05 
  0.8800      3.541e-05 
  0.8900      3.600e-05 
  0.9000      3.658e-05 
  0.9100      3.716e-05 
  0.9200      3.775e-05 
  0.9300      3.833e-05 
  0.9400      3.892e-05 
  0.9500      3.950e-05 
  0.9600      4.009e-05 
  0.9700      4.067e-05 
  0.9800      4.125e-05 
  0.9900      4.184e-05 
  1.0000      4.242e-05 
  1.0100      4.301e-05 
  1.0200      4.359e-05 
  1.0300      4.418e-05 
  1.0400      4.476e-05 
  1.0500      4.535e-05 
  1.0600      4.593e-05 
  1.0700      4.651e-05 
  1.0800      4.710e-05 
  1.0900      4.768e-05 
  1.1000      4.826e-05 
  1.1100      4.885e-05 
  1.1200      4.943e-05 
  1.1300      5.001e-05 
  1.1400      5.059e-05 
  1.1500      5.117e-05 
  1.1600      5.176e-05 
  1.1700      5.234e-05 
  1.1800      5.292e-05 
  1.1900      5.350e-05 
  1.2000      5.408e-05 
y
 ******
 *id-vd characteristics for nmos

 ****** dc transfer curves tnom=  25.000 temp=  25.000 ******
  *** parameter 0:vg  =   0.700       ***
  
x

 volt         current   
             x1.d       
  0.         -6.639e-18 
  1.0000e-02  5.543e-07 
  2.0000e-02  1.092e-06 
  3.0000e-02  1.613e-06 
  4.0000e-02  2.118e-06 
  5.0000e-02  2.608e-06 
  6.0000e-02  3.082e-06 
  7.0000e-02  3.542e-06 
  8.0000e-02  3.989e-06 
  9.0000e-02  4.424e-06 
  0.1000      4.850e-06 
  0.1100      5.267e-06 
  0.1200      5.679e-06 
  0.1300      6.088e-06 
  0.1400      6.495e-06 
  0.1500      6.903e-06 
  0.1600      7.312e-06 
  0.1700      7.725e-06 
  0.1800      8.143e-06 
  0.1900      8.565e-06 
  0.2000      8.992e-06 
  0.2100      9.425e-06 
  0.2200      9.864e-06 
  0.2300      1.031e-05 
  0.2400      1.076e-05 
  0.2500      1.122e-05 
  0.2600      1.168e-05 
  0.2700      1.215e-05 
  0.2800      1.262e-05 
  0.2900      1.310e-05 
  0.3000      1.358e-05 
  0.3100      1.407e-05 
  0.3200      1.457e-05 
  0.3300      1.507e-05 
  0.3400      1.558e-05 
  0.3500      1.609e-05 
  0.3600      1.660e-05 
  0.3700      1.712e-05 
  0.3800      1.765e-05 
  0.3900      1.817e-05 
  0.4000      1.871e-05 
  0.4100      1.924e-05 
  0.4200      1.978e-05 
  0.4300      2.032e-05 
  0.4400      2.087e-05 
  0.4500      2.142e-05 
  0.4600      2.198e-05 
  0.4700      2.253e-05 
  0.4800      2.309e-05 
  0.4900      2.365e-05 
  0.5000      2.422e-05 
  0.5100      2.478e-05 
  0.5200      2.535e-05 
  0.5300      2.593e-05 
  0.5400      2.650e-05 
  0.5500      2.708e-05 
  0.5600      2.765e-05 
  0.5700      2.823e-05 
  0.5800      2.881e-05 
  0.5900      2.939e-05 
  0.6000      2.998e-05 
  0.6100      3.056e-05 
  0.6200      3.115e-05 
  0.6300      3.174e-05 
  0.6400      3.232e-05 
  0.6500      3.291e-05 
  0.6600      3.350e-05 
  0.6700      3.409e-05 
  0.6800      3.468e-05 
  0.6900      3.527e-05 
  0.7000      3.587e-05 
  0.7100      3.646e-05 
  0.7200      3.705e-05 
  0.7300      3.764e-05 
  0.7400      3.824e-05 
  0.7500      3.883e-05 
  0.7600      3.942e-05 
  0.7700      4.002e-05 
  0.7800      4.061e-05 
  0.7900      4.120e-05 
  0.8000      4.180e-05 
  0.8100      4.239e-05 
  0.8200      4.298e-05 
  0.8300      4.357e-05 
  0.8400      4.417e-05 
  0.8500      4.476e-05 
  0.8600      4.535e-05 
  0.8700      4.594e-05 
  0.8800      4.653e-05 
  0.8900      4.712e-05 
  0.9000      4.771e-05 
  0.9100      4.830e-05 
  0.9200      4.889e-05 
  0.9300      4.948e-05 
  0.9400      5.007e-05 
  0.9500      5.066e-05 
  0.9600      5.124e-05 
  0.9700      5.183e-05 
  0.9800      5.242e-05 
  0.9900      5.300e-05 
  1.0000      5.359e-05 
  1.0100      5.417e-05 
  1.0200      5.476e-05 
  1.0300      5.534e-05 
  1.0400      5.592e-05 
  1.0500      5.651e-05 
  1.0600      5.709e-05 
  1.0700      5.767e-05 
  1.0800      5.825e-05 
  1.0900      5.883e-05 
  1.1000      5.941e-05 
  1.1100      5.999e-05 
  1.1200      6.057e-05 
  1.1300      6.114e-05 
  1.1400      6.172e-05 
  1.1500      6.230e-05 
  1.1600      6.287e-05 
  1.1700      6.345e-05 
  1.1800      6.402e-05 
  1.1900      6.460e-05 
  1.2000      6.517e-05 
y
 ******
 *id-vd characteristics for nmos

 ****** dc transfer curves tnom=  25.000 temp=  25.000 ******
  *** parameter 0:vg  =   0.800       ***
  
x

 volt         current   
             x1.d       
  0.         -2.950e-17 
  1.0000e-02  9.811e-07 
  2.0000e-02  1.935e-06 
  3.0000e-02  2.861e-06 
  4.0000e-02  3.761e-06 
  5.0000e-02  4.635e-06 
  6.0000e-02  5.483e-06 
  7.0000e-02  6.307e-06 
  8.0000e-02  7.106e-06 
  9.0000e-02  7.883e-06 
  0.1000      8.637e-06 
  0.1100      9.371e-06 
  0.1200      1.009e-05 
  0.1300      1.078e-05 
  0.1400      1.147e-05 
  0.1500      1.214e-05 
  0.1600      1.279e-05 
  0.1700      1.344e-05 
  0.1800      1.408e-05 
  0.1900      1.472e-05 
  0.2000      1.535e-05 
  0.2100      1.598e-05 
  0.2200      1.660e-05 
  0.2300      1.722e-05 
  0.2400      1.785e-05 
  0.2500      1.847e-05 
  0.2600      1.909e-05 
  0.2700      1.971e-05 
  0.2800      2.033e-05 
  0.2900      2.095e-05 
  0.3000      2.157e-05 
  0.3100      2.219e-05 
  0.3200      2.281e-05 
  0.3300      2.343e-05 
  0.3400      2.405e-05 
  0.3500      2.467e-05 
  0.3600      2.529e-05 
  0.3700      2.591e-05 
  0.3800      2.654e-05 
  0.3900      2.716e-05 
  0.4000      2.778e-05 
  0.4100      2.840e-05 
  0.4200      2.903e-05 
  0.4300      2.965e-05 
  0.4400      3.027e-05 
  0.4500      3.089e-05 
  0.4600      3.152e-05 
  0.4700      3.214e-05 
  0.4800      3.276e-05 
  0.4900      3.339e-05 
  0.5000      3.401e-05 
  0.5100      3.463e-05 
  0.5200      3.525e-05 
  0.5300      3.588e-05 
  0.5400      3.650e-05 
  0.5500      3.712e-05 
  0.5600      3.774e-05 
  0.5700      3.836e-05 
  0.5800      3.898e-05 
  0.5900      3.960e-05 
  0.6000      4.022e-05 
  0.6100      4.084e-05 
  0.6200      4.146e-05 
  0.6300      4.208e-05 
  0.6400      4.270e-05 
  0.6500      4.331e-05 
  0.6600      4.393e-05 
  0.6700      4.455e-05 
  0.6800      4.516e-05 
  0.6900      4.577e-05 
  0.7000      4.639e-05 
  0.7100      4.700e-05 
  0.7200      4.761e-05 
  0.7300      4.822e-05 
  0.7400      4.883e-05 
  0.7500      4.944e-05 
  0.7600      5.005e-05 
  0.7700      5.066e-05 
  0.7800      5.126e-05 
  0.7900      5.187e-05 
  0.8000      5.247e-05 
  0.8100      5.308e-05 
  0.8200      5.368e-05 
  0.8300      5.428e-05 
  0.8400      5.488e-05 
  0.8500      5.548e-05 
  0.8600      5.608e-05 
  0.8700      5.668e-05 
  0.8800      5.728e-05 
  0.8900      5.787e-05 
  0.9000      5.847e-05 
  0.9100      5.906e-05 
  0.9200      5.966e-05 
  0.9300      6.025e-05 
  0.9400      6.084e-05 
  0.9500      6.143e-05 
  0.9600      6.202e-05 
  0.9700      6.261e-05 
  0.9800      6.320e-05 
  0.9900      6.378e-05 
  1.0000      6.437e-05 
  1.0100      6.496e-05 
  1.0200      6.554e-05 
  1.0300      6.612e-05 
  1.0400      6.671e-05 
  1.0500      6.729e-05 
  1.0600      6.787e-05 
  1.0700      6.845e-05 
  1.0800      6.903e-05 
  1.0900      6.961e-05 
  1.1000      7.018e-05 
  1.1100      7.076e-05 
  1.1200      7.134e-05 
  1.1300      7.191e-05 
  1.1400      7.249e-05 
  1.1500      7.306e-05 
  1.1600      7.363e-05 
  1.1700      7.421e-05 
  1.1800      7.478e-05 
  1.1900      7.535e-05 
  1.2000      7.592e-05 
y
 ******
 *id-vd characteristics for nmos

 ****** dc transfer curves tnom=  25.000 temp=  25.000 ******
  *** parameter 0:vg  =   0.900       ***
  
x

 volt         current   
             x1.d       
  0.         -1.333e-16 
  1.0000e-02  1.420e-06 
  2.0000e-02  2.800e-06 
  3.0000e-02  4.140e-06 
  4.0000e-02  5.441e-06 
  5.0000e-02  6.702e-06 
  6.0000e-02  7.925e-06 
  7.0000e-02  9.111e-06 
  8.0000e-02  1.026e-05 
  9.0000e-02  1.137e-05 
  0.1000      1.245e-05 
  0.1100      1.350e-05 
  0.1200      1.452e-05 
  0.1300      1.551e-05 
  0.1400      1.647e-05 
  0.1500      1.741e-05 
  0.1600      1.832e-05 
  0.1700      1.922e-05 
  0.1800      2.009e-05 
  0.1900      2.095e-05 
  0.2000      2.179e-05 
  0.2100      2.261e-05 
  0.2200      2.342e-05 
  0.2300      2.423e-05 
  0.2400      2.502e-05 
  0.2500      2.580e-05 
  0.2600      2.657e-05 
  0.2700      2.734e-05 
  0.2800      2.810e-05 
  0.2900      2.885e-05 
  0.3000      2.959e-05 
  0.3100      3.033e-05 
  0.3200      3.107e-05 
  0.3300      3.179e-05 
  0.3400      3.252e-05 
  0.3500      3.324e-05 
  0.3600      3.395e-05 
  0.3700      3.466e-05 
  0.3800      3.537e-05 
  0.3900      3.608e-05 
  0.4000      3.678e-05 
  0.4100      3.747e-05 
  0.4200      3.817e-05 
  0.4300      3.886e-05 
  0.4400      3.955e-05 
  0.4500      4.023e-05 
  0.4600      4.091e-05 
  0.4700      4.159e-05 
  0.4800      4.227e-05 
  0.4900      4.295e-05 
  0.5000      4.362e-05 
  0.5100      4.429e-05 
  0.5200      4.496e-05 
  0.5300      4.562e-05 
  0.5400      4.628e-05 
  0.5500      4.694e-05 
  0.5600      4.760e-05 
  0.5700      4.826e-05 
  0.5800      4.891e-05 
  0.5900      4.957e-05 
  0.6000      5.022e-05 
  0.6100      5.087e-05 
  0.6200      5.151e-05 
  0.6300      5.216e-05 
  0.6400      5.280e-05 
  0.6500      5.344e-05 
  0.6600      5.408e-05 
  0.6700      5.472e-05 
  0.6800      5.535e-05 
  0.6900      5.599e-05 
  0.7000      5.662e-05 
  0.7100      5.725e-05 
  0.7200      5.788e-05 
  0.7300      5.851e-05 
  0.7400      5.913e-05 
  0.7500      5.975e-05 
  0.7600      6.038e-05 
  0.7700      6.100e-05 
  0.7800      6.162e-05 
  0.7900      6.223e-05 
  0.8000      6.285e-05 
  0.8100      6.346e-05 
  0.8200      6.407e-05 
  0.8300      6.469e-05 
  0.8400      6.530e-05 
  0.8500      6.590e-05 
  0.8600      6.651e-05 
  0.8700      6.711e-05 
  0.8800      6.772e-05 
  0.8900      6.832e-05 
  0.9000      6.892e-05 
  0.9100      6.952e-05 
  0.9200      7.012e-05 
  0.9300      7.072e-05 
  0.9400      7.131e-05 
  0.9500      7.191e-05 
  0.9600      7.250e-05 
  0.9700      7.309e-05 
  0.9800      7.368e-05 
  0.9900      7.427e-05 
  1.0000      7.486e-05 
  1.0100      7.545e-05 
  1.0200      7.603e-05 
  1.0300      7.662e-05 
  1.0400      7.720e-05 
  1.0500      7.779e-05 
  1.0600      7.837e-05 
  1.0700      7.895e-05 
  1.0800      7.953e-05 
  1.0900      8.011e-05 
  1.1000      8.069e-05 
  1.1100      8.126e-05 
  1.1200      8.184e-05 
  1.1300      8.241e-05 
  1.1400      8.299e-05 
  1.1500      8.356e-05 
  1.1600      8.413e-05 
  1.1700      8.470e-05 
  1.1800      8.527e-05 
  1.1900      8.584e-05 
  1.2000      8.641e-05 
y
 ******
 *id-vd characteristics for nmos

 ****** dc transfer curves tnom=  25.000 temp=  25.000 ******
  *** parameter 0:vg  =   1.000       ***
  
x

 volt         current   
             x1.d       
  0.         -5.678e-16 
  1.0000e-02  1.858e-06 
  2.0000e-02  3.663e-06 
  3.0000e-02  5.415e-06 
  4.0000e-02  7.113e-06 
  5.0000e-02  8.759e-06 
  6.0000e-02  1.035e-05 
  7.0000e-02  1.190e-05 
  8.0000e-02  1.339e-05 
  9.0000e-02  1.484e-05 
  0.1000      1.624e-05 
  0.1100      1.759e-05 
  0.1200      1.891e-05 
  0.1300      2.018e-05 
  0.1400      2.142e-05 
  0.1500      2.262e-05 
  0.1600      2.378e-05 
  0.1700      2.492e-05 
  0.1800      2.602e-05 
  0.1900      2.710e-05 
  0.2000      2.815e-05 
  0.2100      2.917e-05 
  0.2200      3.018e-05 
  0.2300      3.116e-05 
  0.2400      3.212e-05 
  0.2500      3.306e-05 
  0.2600      3.398e-05 
  0.2700      3.489e-05 
  0.2800      3.578e-05 
  0.2900      3.666e-05 
  0.3000      3.753e-05 
  0.3100      3.838e-05 
  0.3200      3.922e-05 
  0.3300      4.005e-05 
  0.3400      4.087e-05 
  0.3500      4.168e-05 
  0.3600      4.249e-05 
  0.3700      4.328e-05 
  0.3800      4.407e-05 
  0.3900      4.485e-05 
  0.4000      4.562e-05 
  0.4100      4.638e-05 
  0.4200      4.714e-05 
  0.4300      4.789e-05 
  0.4400      4.864e-05 
  0.4500      4.938e-05 
  0.4600      5.012e-05 
  0.4700      5.085e-05 
  0.4800      5.158e-05 
  0.4900      5.230e-05 
  0.5000      5.302e-05 
  0.5100      5.373e-05 
  0.5200      5.444e-05 
  0.5300      5.514e-05 
  0.5400      5.584e-05 
  0.5500      5.654e-05 
  0.5600      5.723e-05 
  0.5700      5.792e-05 
  0.5800      5.861e-05 
  0.5900      5.929e-05 
  0.6000      5.997e-05 
  0.6100      6.065e-05 
  0.6200      6.132e-05 
  0.6300      6.199e-05 
  0.6400      6.266e-05 
  0.6500      6.332e-05 
  0.6600      6.398e-05 
  0.6700      6.464e-05 
  0.6800      6.530e-05 
  0.6900      6.595e-05 
  0.7000      6.660e-05 
  0.7100      6.725e-05 
  0.7200      6.789e-05 
  0.7300      6.854e-05 
  0.7400      6.918e-05 
  0.7500      6.982e-05 
  0.7600      7.045e-05 
  0.7700      7.108e-05 
  0.7800      7.172e-05 
  0.7900      7.234e-05 
  0.8000      7.297e-05 
  0.8100      7.360e-05 
  0.8200      7.422e-05 
  0.8300      7.484e-05 
  0.8400      7.546e-05 
  0.8500      7.608e-05 
  0.8600      7.669e-05 
  0.8700      7.730e-05 
  0.8800      7.792e-05 
  0.8900      7.852e-05 
  0.9000      7.913e-05 
  0.9100      7.974e-05 
  0.9200      8.034e-05 
  0.9300      8.095e-05 
  0.9400      8.155e-05 
  0.9500      8.215e-05 
  0.9600      8.274e-05 
  0.9700      8.334e-05 
  0.9800      8.394e-05 
  0.9900      8.453e-05 
  1.0000      8.512e-05 
  1.0100      8.571e-05 
  1.0200      8.630e-05 
  1.0300      8.689e-05 
  1.0400      8.748e-05 
  1.0500      8.806e-05 
  1.0600      8.864e-05 
  1.0700      8.923e-05 
  1.0800      8.981e-05 
  1.0900      9.039e-05 
  1.1000      9.097e-05 
  1.1100      9.155e-05 
  1.1200      9.212e-05 
  1.1300      9.270e-05 
  1.1400      9.327e-05 
  1.1500      9.385e-05 
  1.1600      9.442e-05 
  1.1700      9.499e-05 
  1.1800      9.556e-05 
  1.1900      9.613e-05 
  1.2000      9.670e-05 
y
 ******
 *id-vd characteristics for nmos

 ****** dc transfer curves tnom=  25.000 temp=  25.000 ******
  *** parameter 0:vg  =   1.100       ***
  
x

 volt         current   
             x1.d       
  0.         -2.257e-15 
  1.0000e-02  2.269e-06 
  2.0000e-02  4.474e-06 
  3.0000e-02  6.617e-06 
  4.0000e-02  8.696e-06 
  5.0000e-02  1.071e-05 
  6.0000e-02  1.267e-05 
  7.0000e-02  1.456e-05 
  8.0000e-02  1.639e-05 
  9.0000e-02  1.817e-05 
  0.1000      1.989e-05 
  0.1100      2.156e-05 
  0.1200      2.317e-05 
  0.1300      2.474e-05 
  0.1400      2.625e-05 
  0.1500      2.773e-05 
  0.1600      2.915e-05 
  0.1700      3.054e-05 
  0.1800      3.189e-05 
  0.1900      3.319e-05 
  0.2000      3.446e-05 
  0.2100      3.570e-05 
  0.2200      3.690e-05 
  0.2300      3.807e-05 
  0.2400      3.921e-05 
  0.2500      4.032e-05 
  0.2600      4.140e-05 
  0.2700      4.246e-05 
  0.2800      4.349e-05 
  0.2900      4.450e-05 
  0.3000      4.548e-05 
  0.3100      4.645e-05 
  0.3200      4.739e-05 
  0.3300      4.832e-05 
  0.3400      4.923e-05 
  0.3500      5.013e-05 
  0.3600      5.101e-05 
  0.3700      5.188e-05 
  0.3800      5.273e-05 
  0.3900      5.357e-05 
  0.4000      5.441e-05 
  0.4100      5.523e-05 
  0.4200      5.604e-05 
  0.4300      5.685e-05 
  0.4400      5.764e-05 
  0.4500      5.843e-05 
  0.4600      5.921e-05 
  0.4700      5.999e-05 
  0.4800      6.075e-05 
  0.4900      6.151e-05 
  0.5000      6.227e-05 
  0.5100      6.302e-05 
  0.5200      6.376e-05 
  0.5300      6.450e-05 
  0.5400      6.523e-05 
  0.5500      6.596e-05 
  0.5600      6.668e-05 
  0.5700      6.740e-05 
  0.5800      6.811e-05 
  0.5900      6.882e-05 
  0.6000      6.953e-05 
  0.6100      7.023e-05 
  0.6200      7.093e-05 
  0.6300      7.162e-05 
  0.6400      7.231e-05 
  0.6500      7.299e-05 
  0.6600      7.368e-05 
  0.6700      7.435e-05 
  0.6800      7.503e-05 
  0.6900      7.570e-05 
  0.7000      7.637e-05 
  0.7100      7.703e-05 
  0.7200      7.770e-05 
  0.7300      7.835e-05 
  0.7400      7.901e-05 
  0.7500      7.966e-05 
  0.7600      8.031e-05 
  0.7700      8.096e-05 
  0.7800      8.160e-05 
  0.7900      8.224e-05 
  0.8000      8.288e-05 
  0.8100      8.352e-05 
  0.8200      8.415e-05 
  0.8300      8.478e-05 
  0.8400      8.541e-05 
  0.8500      8.604e-05 
  0.8600      8.666e-05 
  0.8700      8.728e-05 
  0.8800      8.790e-05 
  0.8900      8.852e-05 
  0.9000      8.914e-05 
  0.9100      8.975e-05 
  0.9200      9.036e-05 
  0.9300      9.097e-05 
  0.9400      9.158e-05 
  0.9500      9.218e-05 
  0.9600      9.279e-05 
  0.9700      9.339e-05 
  0.9800      9.399e-05 
  0.9900      9.459e-05 
  1.0000      9.519e-05 
  1.0100      9.578e-05 
  1.0200      9.638e-05 
  1.0300      9.697e-05 
  1.0400      9.756e-05 
  1.0500      9.815e-05 
  1.0600      9.873e-05 
  1.0700      9.932e-05 
  1.0800      9.991e-05 
  1.0900      1.005e-04 
  1.1000      1.011e-04 
  1.1100      1.017e-04 
  1.1200      1.022e-04 
  1.1300      1.028e-04 
  1.1400      1.034e-04 
  1.1500      1.040e-04 
  1.1600      1.045e-04 
  1.1700      1.051e-04 
  1.1800      1.057e-04 
  1.1900      1.063e-04 
  1.2000      1.068e-04 
y
 ******
 *id-vd characteristics for nmos

 ****** dc transfer curves tnom=  25.000 temp=  25.000 ******
  *** parameter 0:vg  =   1.200       ***
  
x

 volt         current   
             x1.d       
  0.         -7.970e-15 
  1.0000e-02  2.641e-06 
  2.0000e-02  5.211e-06 
  3.0000e-02  7.710e-06 
  4.0000e-02  1.014e-05 
  5.0000e-02  1.250e-05 
  6.0000e-02  1.478e-05 
  7.0000e-02  1.700e-05 
  8.0000e-02  1.916e-05 
  9.0000e-02  2.125e-05 
  0.1000      2.327e-05 
  0.1100      2.524e-05 
  0.1200      2.715e-05 
  0.1300      2.900e-05 
  0.1400      3.079e-05 
  0.1500      3.253e-05 
  0.1600      3.422e-05 
  0.1700      3.587e-05 
  0.1800      3.746e-05 
  0.1900      3.901e-05 
  0.2000      4.051e-05 
  0.2100      4.198e-05 
  0.2200      4.339e-05 
  0.2300      4.477e-05 
  0.2400      4.611e-05 
  0.2500      4.741e-05 
  0.2600      4.868e-05 
  0.2700      4.990e-05 
  0.2800      5.110e-05 
  0.2900      5.225e-05 
  0.3000      5.338e-05 
  0.3100      5.447e-05 
  0.3200      5.554e-05 
  0.3300      5.658e-05 
  0.3400      5.759e-05 
  0.3500      5.858e-05 
  0.3600      5.954e-05 
  0.3700      6.049e-05 
  0.3800      6.142e-05 
  0.3900      6.232e-05 
  0.4000      6.322e-05 
  0.4100      6.409e-05 
  0.4200      6.496e-05 
  0.4300      6.581e-05 
  0.4400      6.664e-05 
  0.4500      6.747e-05 
  0.4600      6.829e-05 
  0.4700      6.909e-05 
  0.4800      6.989e-05 
  0.4900      7.068e-05 
  0.5000      7.147e-05 
  0.5100      7.224e-05 
  0.5200      7.301e-05 
  0.5300      7.377e-05 
  0.5400      7.453e-05 
  0.5500      7.528e-05 
  0.5600      7.602e-05 
  0.5700      7.676e-05 
  0.5800      7.750e-05 
  0.5900      7.822e-05 
  0.6000      7.895e-05 
  0.6100      7.967e-05 
  0.6200      8.038e-05 
  0.6300      8.110e-05 
  0.6400      8.180e-05 
  0.6500      8.251e-05 
  0.6600      8.320e-05 
  0.6700      8.390e-05 
  0.6800      8.459e-05 
  0.6900      8.528e-05 
  0.7000      8.596e-05 
  0.7100      8.664e-05 
  0.7200      8.732e-05 
  0.7300      8.799e-05 
  0.7400      8.866e-05 
  0.7500      8.933e-05 
  0.7600      8.999e-05 
  0.7700      9.065e-05 
  0.7800      9.131e-05 
  0.7900      9.196e-05 
  0.8000      9.261e-05 
  0.8100      9.326e-05 
  0.8200      9.390e-05 
  0.8300      9.454e-05 
  0.8400      9.518e-05 
  0.8500      9.582e-05 
  0.8600      9.645e-05 
  0.8700      9.708e-05 
  0.8800      9.771e-05 
  0.8900      9.834e-05 
  0.9000      9.896e-05 
  0.9100      9.959e-05 
  0.9200      1.002e-04 
  0.9300      1.008e-04 
  0.9400      1.014e-04 
  0.9500      1.020e-04 
  0.9600      1.027e-04 
  0.9700      1.033e-04 
  0.9800      1.039e-04 
  0.9900      1.045e-04 
  1.0000      1.051e-04 
  1.0100      1.057e-04 
  1.0200      1.063e-04 
  1.0300      1.069e-04 
  1.0400      1.075e-04 
  1.0500      1.081e-04 
  1.0600      1.087e-04 
  1.0700      1.093e-04 
  1.0800      1.098e-04 
  1.0900      1.104e-04 
  1.1000      1.110e-04 
  1.1100      1.116e-04 
  1.1200      1.122e-04 
  1.1300      1.128e-04 
  1.1400      1.133e-04 
  1.1500      1.139e-04 
  1.1600      1.145e-04 
  1.1700      1.151e-04 
  1.1800      1.157e-04 
  1.1900      1.162e-04 
  1.2000      1.168e-04 
y

          ***** job concluded
1****** HSPICE -- K-2015.06-SP2 linux64 (Nov 18 2015) ******                    
 ******  
 *id-vd characteristics for nmos

 ****** job statistics summary tnom=  25.000 temp=  25.000 ******
  
  
 ******  Machine Information  ******
 CPU:
 model name	: Intel(R) Xeon(R) Gold 5218 CPU @ 2.30GHz
 cpu MHz	: 1100.024
  
 OS:
 Linux version 3.10.0-1160.6.1.el7.x86_64 (mockbuild@kbuilder.bsys.centos.org) (gcc version 4.8.5 20150623 (Red Hat 4.8.5-44) (GCC) ) #1 SMP Tue Nov 17 13:59:11 UTC 2020


  ******  HSPICE Threads Information  ******

  Command Line Threads Count :     1
  Available CPU Count        :    64
  Actual Threads Count       :     1


  ******  Circuit Statistics  ******
  # nodes       =      15 # elements   =       6
  # resistors   =       0 # capacitors =       0 # inductors   =       0
  # mutual_inds =       0 # vccs       =       0 # vcvs        =       0
  # cccs        =       0 # ccvs       =       0 # volt_srcs   =       5
  # curr_srcs   =       0 # diodes     =       0 # bjts        =       0
  # jfets       =       0 # mosfets    =       0 # U elements  =       0
  # T elements  =       0 # W elements =       0 # B elements  =       0
  # S elements  =       0 # P elements =       0 # va device   =       1
  # vector_srcs =       0 # N elements =       0


  ******  Runtime Statistics (seconds)  ******

  analysis           time    # points   tot. iter  conv.iter
  op point           0.00           1           0
  dc sweep           0.24        1331        2785
  readin             0.30
  errchk             0.10
  setup              0.01
  output             0.00


           peak memory used        247.62 megabytes
           total cpu time            0.69 seconds
           total elapsed time        2.19 seconds
           job started at     08:08:40 04/15/2021
           job ended   at     08:08:42 04/15/2021


 lic: Release hspice token(s) 
 lic: total license checkout elapse time:        0.29(s)
