****** HSPICE -- K-2015.06-SP2 linux64 (Nov 18 2015) ******
 Input File: test1.sp
 lic:
 lic: FLEXlm: v11.2.1
 lic: USER:   ccatalino            HOSTNAME: koopa.ece.utexas.edu
 lic: HOSTID: "e4434bc49dca"       PID:      35184
 lic: Using FLEXlm license file:
 lic: /usr/local/packages/synopsys_2015/key
 lic: Checkout 1 hspice
 lic: License/Maintenance for hspice will expire on 14-jan-2023/2020.12
 lic: 1(in_use)/100(total) FLOATING license(s) on SERVER /usr/local/packages/synopsys_2015/key
 lic:
 init: begin read circuit files,  cpu clock=  9.00E-02
       option search = /usr/local/packages/synopsys_2015/hspice/hspice/
                         parts/ad
       option search = /usr/local/packages/synopsys_2015/hspice/hspice/
                         parts/ad
       option search = /usr/local/packages/synopsys_2015/hspice/hspice/
                         parts/behave
       option search = /usr/local/packages/synopsys_2015/hspice/hspice/
                         parts/bjt
       option search = /usr/local/packages/synopsys_2015/hspice/hspice/
                         parts/burr_brn
       option search = /usr/local/packages/synopsys_2015/hspice/hspice/
                         parts/comlinear
       option search = /usr/local/packages/synopsys_2015/hspice/hspice/
                         parts/dio
       option search = /usr/local/packages/synopsys_2015/hspice/hspice/
                         parts/fet
       option search = /usr/local/packages/synopsys_2015/hspice/hspice/
                         parts/lin_tech
       option search = /usr/local/packages/synopsys_2015/hspice/hspice/
                         parts/pci
       option search = /usr/local/packages/synopsys_2015/hspice/hspice/
                         parts/signet
       option search = /usr/local/packages/synopsys_2015/hspice/hspice/
                         parts/ti
       option search = /usr/local/packages/synopsys_2015/hspice/hspice/
                         parts/tline
       option search = /usr/local/packages/synopsys_2015/hspice/hspice/
                         parts/xilinx
       option runlvl
       option abstol =    1.000E-06
       option reltol =    1.000E-06
       option post
       option ingold
 init: end read circuit files,  cpu clock=  3.80E-01 peak memory=       243 mb
 init: begin check errors,  cpu clock=  3.80E-01
 init: end check errors,  cpu clock=  4.80E-01 peak memory=       247 mb
 init: begin setup matrix, pivot=     0 cpu clock=  4.80E-01
       establish matrix -- done,  cpu clock=  4.80E-01 peak memory=       247 mb
       re-order matrix -- done,  cpu clock=  4.80E-01 peak memory=       247 mb
 init: end setup matrix,  cpu clock=  4.90E-01 peak memory=       247 mb
 sweep: voltage         voltage1         begin, #sweeps =  11
 voltage: vg              =    2.00E-01
 output: test1.sw0
 sweep: dc dc1    begin, #sweeps= 121 cpu clock=  4.90E-01
 sweep: dc dc1    end,  cpu clock=  5.10E-01 peak memory=       247 mb
 voltage: vg              =    3.00E-01
 output: test1.sw0
 sweep: dc dc2    begin, #sweeps= 121 cpu clock=  5.10E-01
 sweep: dc dc2    end,  cpu clock=  5.30E-01 peak memory=       247 mb
 voltage: vg              =    4.00E-01
 output: test1.sw0
 sweep: dc dc3    begin, #sweeps= 121 cpu clock=  5.40E-01
 sweep: dc dc3    end,  cpu clock=  5.60E-01 peak memory=       247 mb
 voltage: vg              =    5.00E-01
 output: test1.sw0
 sweep: dc dc4    begin, #sweeps= 121 cpu clock=  5.70E-01
 sweep: dc dc4    end,  cpu clock=  5.90E-01 peak memory=       247 mb
 voltage: vg              =    6.00E-01
 output: test1.sw0
 sweep: dc dc5    begin, #sweeps= 121 cpu clock=  5.90E-01
 sweep: dc dc5    end,  cpu clock=  6.10E-01 peak memory=       247 mb
 voltage: vg              =    7.00E-01
 output: test1.sw0
 sweep: dc dc6    begin, #sweeps= 121 cpu clock=  6.20E-01
 sweep: dc dc6    end,  cpu clock=  6.40E-01 peak memory=       247 mb
 voltage: vg              =    8.00E-01
 output: test1.sw0
 sweep: dc dc7    begin, #sweeps= 121 cpu clock=  6.40E-01
 sweep: dc dc7    end,  cpu clock=  6.70E-01 peak memory=       247 mb
 voltage: vg              =    9.00E-01
 output: test1.sw0
 sweep: dc dc8    begin, #sweeps= 121 cpu clock=  6.70E-01
 sweep: dc dc8    end,  cpu clock=  6.90E-01 peak memory=       247 mb
 voltage: vg              =    1.00E+00
 output: test1.sw0
 sweep: dc dc9    begin, #sweeps= 121 cpu clock=  6.90E-01
 sweep: dc dc9    end,  cpu clock=  7.10E-01 peak memory=       247 mb
 voltage: vg              =    1.10E+00
 output: test1.sw0
 sweep: dc dc10   begin, #sweeps= 121 cpu clock=  7.20E-01
 sweep: dc dc10   end,  cpu clock=  7.40E-01 peak memory=       247 mb
 voltage: vg              =    1.20E+00
 output: test1.sw0
 sweep: dc dc11   begin, #sweeps= 121 cpu clock=  7.40E-01
 sweep: dc dc11   end,  cpu clock=  7.70E-01 peak memory=       247 mb
 sweep: voltage         voltage         1 end
>info:         ***** hspice job concluded
 lic: Release hspice token(s)
